Version 4
SHEET 1 880 680
WIRE 416 64 336 64
WIRE 384 80 304 80
WIRE 304 96 304 80
WIRE 384 128 384 80
WIRE 416 128 416 64
WIRE 448 128 416 128
WIRE 112 144 64 144
WIRE 288 144 192 144
WIRE 352 144 288 144
WIRE 448 160 448 128
WIRE 448 160 416 160
WIRE 560 160 448 160
WIRE 64 176 64 144
WIRE 336 176 336 64
WIRE 352 176 336 176
WIRE 384 208 384 192
WIRE 512 208 384 208
WIRE 288 240 288 144
WIRE 64 304 64 256
WIRE 288 304 64 304
WIRE 352 304 352 288
WIRE 352 304 288 304
WIRE 512 304 512 288
WIRE 512 304 352 304
WIRE 560 304 560 240
WIRE 560 304 512 304
WIRE 288 352 288 304
FLAG 288 352 0
FLAG 304 96 0
SYMBOL res 208 128 R90
WINDOW 0 0 56 VBottom 2
WINDOW 3 32 56 VTop 2
SYMATTR InstName Rin
SYMATTR Value 140
SYMBOL cap 272 240 R0
SYMATTR InstName C
SYMATTR Value 100n
SYMBOL OpAmps\\opamp2 384 224 M180
WINDOW 3 16 96 Left 0
SYMATTR Value LMX58_LM2904
SYMATTR InstName U
SYMBOL res 544 144 R0
SYMATTR InstName Rout
SYMATTR Value 1000K
SYMBOL voltage 64 160 R0
WINDOW 123 0 0 Left 0
WINDOW 39 0 0 Left 0
WINDOW 3 24 96 Left 0
SYMATTR Value PULSE(0 3.3 0 1n 1n 4.15e-5 8.3e-5)
SYMATTR InstName V1
SYMBOL voltage 512 192 R0
WINDOW 123 0 0 Left 0
WINDOW 39 0 0 Left 0
SYMATTR InstName V2
SYMATTR Value 5
TEXT 464 72 Left 2 !.lib lmx58_lm2904.lib
TEXT 32 376 Left 2 !.tran 10e-4
